21
 1. R=  1.45  E= -70.70995 kcal/mol
C          0.00000        0.00000        0.00000
C          1.45000        0.00000        0.00000
C         -0.59129        0.00000       -1.38443
C         -0.59607       -1.05711        0.87553
O          2.09696       -0.88773        0.49405
C         -1.74375       -0.74219       -1.71252
C         -1.67699       -1.77283        0.50106
C         -2.27968       -1.60310       -0.79152
O         -0.00719        0.69637       -2.26441
H         -0.11237       -1.18525        1.85382
H         -2.12069       -2.51748        1.17520
H         -2.17349       -0.63060       -2.71711
H         -3.17519       -2.19945       -1.03408
Al         1.39649        1.75847       -2.72914
Cl         1.02952        3.74372       -2.67760
Cl         2.57776        0.87523       -4.12025
H         -0.37407        0.99611        0.49312
C          2.17030        1.17449       -0.64349
H          1.51951        2.13390       -0.74127
H          2.79633        0.81961       -1.56302
H          2.99168        1.52430        0.05383
21
 2. R=  1.5  E= -72.33589 kcal/mol
C          0.00000        0.00000        0.00000
C          1.50000        0.00000        0.00000
C         -0.58926        0.00000       -1.38443
C         -0.59561       -1.05711        0.87516
O          2.14611       -0.88747        0.49395
C         -1.74132       -0.74223       -1.71375
C         -1.67651       -1.77288        0.50057
C         -2.27815       -1.60309       -0.79318
O         -0.00293        0.69626       -2.26297
H         -0.11174       -1.18538        1.85332
H         -2.12006       -2.51775        1.17453
H         -2.16993       -0.63074       -2.71883
H         -3.17336       -2.19952       -1.03659
Al         1.40280        1.75715       -2.72360
Cl         1.03786        3.74270       -2.67138
Cl         2.58641        0.87378       -4.11258
H         -0.37368        0.99593        0.49302
C          2.21885        1.17478       -0.64395
H          1.56721        2.13357       -0.74158
H          2.84456        0.82035       -1.56374
H          3.04026        1.52542        0.05286
21
 3. R=  1.6  E= -71.89496 kcal/mol
C          0.00000        0.00000        0.00000
C          1.60000        0.00000        0.00000
C         -0.57311        0.00000       -1.37296
C         -0.52592       -1.08967        0.85735
O          2.17188       -0.79367        0.68319
C         -1.65173       -0.82908       -1.74343
C         -1.54372       -1.88405        0.45779
C         -2.13112       -1.74673       -0.84435
O         -0.06902        0.80159       -2.21819
H         -0.05304       -1.19416        1.84383
H         -1.94249       -2.66513        1.11735
H         -2.07098       -0.73439       -2.75309
H         -2.97069       -2.40898       -1.11292
Al         1.33741        1.75937       -2.81474
Cl         1.19482        3.77200       -2.66954
Cl         2.31534        0.86189       -4.34982
H         -0.29486        0.99096        0.50857
C          2.30206        1.02088       -0.84796
H          1.76248        2.05317       -0.85341
H          2.64808        0.53738       -1.85617
H          3.30041        1.27871       -0.37176
21
 4. R=  1.7  E= -67.87086 kcal/mol
C          0.00000        0.00000        0.00000
C          1.70000        0.00000        0.00000
C         -0.53540        0.00000       -1.37632
C         -0.49838       -1.10550        0.83736
O          2.22791       -0.80623        0.68995
C         -1.58047       -0.85551       -1.78169
C         -1.48341       -1.92993        0.41126
C         -2.04993       -1.79567       -0.89954
O         -0.02953        0.82366       -2.20428
H         -0.04052       -1.20632        1.83094
H         -1.86883       -2.73003        1.05462
H         -1.98261       -0.76113       -2.79734
H         -2.86596       -2.47759       -1.18985
Al         1.36052        1.79475       -2.79365
Cl         1.20488        3.80344       -2.59706
Cl         2.36170        0.94975       -4.34367
H         -0.24164        0.98716        0.51633
C          2.36507        1.02812       -0.84924
H          1.81618        2.05584       -0.82887
H          2.69081        0.56101       -1.87214
H          3.37546        1.29249       -0.39769
21
 5. R=  1.8  E= -63.15655 kcal/mol
C          0.00000        0.00000        0.00000
C          1.80000        0.00000        0.00000
C         -0.44510        0.00000       -1.39502
C         -0.46277       -1.14203        0.78920
O          2.28420       -0.85888        0.64074
C         -1.31825       -0.97564       -1.91665
C         -1.28899       -2.07960        0.26269
C         -1.73467       -1.99460       -1.09558
O          0.00467        0.92601       -2.15426
H         -0.11356       -1.19411        1.82903
H         -1.63686       -2.92711        0.86433
H         -1.63815       -0.90545       -2.96197
H         -2.41640       -2.77325       -1.47395
Al         1.34100        2.00160       -2.65112
Cl         1.12577        3.97617       -2.25118
Cl         2.40558        1.38100       -4.26378
H         -0.19364        0.97372        0.53062
C          2.40593        1.09601       -0.78826
H          1.83453        2.10511       -0.67132
H          2.71054        0.71745       -1.85404
H          3.42754        1.35273       -0.35067
21
 6. R=  1.9  E= -59.02075 kcal/mol
C          0.00000        0.00000        0.00000
C          1.90000        0.00000        0.00000
C         -0.40030        0.00000       -1.39182
C         -0.44347       -1.14562        0.77288
O          2.32119       -0.87033        0.65221
C         -1.20221       -1.01082       -1.95761
C         -1.20771       -2.12304        0.21426
C         -1.60363       -2.05312       -1.15559
O          0.03492        0.95765       -2.13375
H         -0.14250       -1.18471        1.82773
H         -1.54250       -2.98250        0.80456
H         -1.48705       -0.94686       -3.01197
H         -2.23808       -2.85591       -1.56249
Al         1.33816        2.05256       -2.62525
Cl         1.15569        4.01757       -2.16178
Cl         2.42775        1.49636       -4.24558
H         -0.11324        0.97230        0.53786
C          2.45174        1.10556       -0.79340
H          1.87343        2.10724       -0.64394
H          2.71885        0.74139       -1.87472
H          3.48833        1.37490       -0.39128
21
 7. R=  2  E= -56.25127 kcal/mol
C          0.00000        0.00000        0.00000
C          2.00000        0.00000        0.00000
C         -0.29898        0.00000       -1.39864
C         -0.42633       -1.16001        0.73306
O          2.33787       -0.92053        0.61092
C         -0.92693       -1.07865       -2.04921
C         -1.02980       -2.21298        0.10282
C         -1.28980       -2.17216       -1.29331
O          0.09165        1.02372       -2.09603
H         -0.24766       -1.17405        1.81516
H         -1.33320       -3.10158        0.66430
H         -1.11889       -1.02721       -3.12374
H         -1.79042       -3.03030       -1.76486
Al         1.32029        2.21322       -2.49602
Cl         1.08039        4.12091       -1.84161
Cl         2.50524        1.89059       -4.11360
H         -0.03931        0.95913        0.55015
C          2.48839        1.16158       -0.72922
H          1.89091        2.13651       -0.50618
H          2.75294        0.88528       -1.83578
H          3.52780        1.43677       -0.32333
21
 8. R=  2.05  E= -55.69713 kcal/mol
C          0.00000        0.00000        0.00000
C          2.05000        0.00000        0.00000
C         -0.22223        0.00000       -1.40517
C         -0.43303       -1.16485        0.70711
O          2.33914       -0.98130        0.52618
C         -0.77193       -1.09506       -2.09565
C         -0.96431       -2.23954        0.04143
C         -1.14168       -2.20460       -1.36410
O          0.18051        1.04083       -2.08083
H         -0.32716       -1.17462        1.79838
H         -1.27534       -3.13454        0.58751
H         -0.90221       -1.04516       -3.17901
H         -1.58398       -3.07587       -1.86704
Al         1.37212        2.27244       -2.42310
Cl         1.09350        4.16235       -1.73018
Cl         2.63071        2.02317       -3.99876
H         -0.01197        0.94934        0.55897
C          2.51387        1.22376       -0.62521
H          1.85553        2.15654       -0.39957
H          2.87439        1.02761       -1.72332
H          3.50704        1.52943       -0.12985
21
 9. R=  2.1  E= -55.36913 kcal/mol
C          0.00000        0.00000        0.00000
C          2.10000        0.00000        0.00000
C         -0.16553        0.00000       -1.40683
C         -0.45331       -1.15904        0.69073
O          2.34445       -1.03412        0.42931
C         -0.68364       -1.09452       -2.11919
C         -0.95657       -2.23969        0.00563
C         -1.08162       -2.20578       -1.40188
O          0.27193        1.04159       -2.07125
H         -0.39298       -1.16786        1.78519
H         -1.28365       -3.13322        0.54390
H         -0.77008       -1.04673       -3.20656
H         -1.50495       -3.07541       -1.92217
Al         1.49451        2.22203       -2.43724
Cl         1.36590        4.16451       -1.86425
Cl         2.79536        1.78243       -3.94080
H          0.02226        0.94259        0.56431
C          2.53025        1.28412       -0.50434
H          1.77821        2.15586       -0.35027
H          3.06526        1.17775       -1.54048
H          3.41283        1.65022        0.14118
21
 10. R=  2.15  E= -55.59558 kcal/mol
C          0.00000        0.00000        0.00000
C          2.15000        0.00000        0.00000
C         -0.14730        0.00000       -1.40369
C         -0.44480       -1.15908        0.68708
O          2.34989       -1.04274        0.42229
C         -0.65266       -1.09596       -2.12288
C         -0.94194       -2.24361       -0.00243
C         -1.05597       -2.20934       -1.40970
O          0.29895        1.04354       -2.06576
H         -0.39071       -1.17177        1.78143
H         -1.27343       -3.13636        0.53351
H         -0.72917       -1.04806       -3.21072
H         -1.47916       -3.07592       -1.93411
Al         1.53341        2.19493       -2.46247
Cl         1.47509        4.15151       -1.92524
Cl         2.83254        1.69153       -3.95023
H          0.05971        0.93603        0.56727
C          2.55642        1.29191       -0.49133
H          1.78118        2.14492       -0.35590
H          3.12684        1.20687       -1.51132
H          3.41271        1.68112        0.17963
21
 11. R=  2.2  E= -56.0673 kcal/mol
C          0.00000        0.00000        0.00000
C          2.20000        0.00000        0.00000
C         -0.14773        0.00000       -1.39976
C         -0.46140       -1.14593        0.68805
O          2.33761       -1.02407        0.48045
C         -0.67043       -1.08599       -2.11861
C         -0.96990       -2.22894       -0.00059
C         -1.08259       -2.19668       -1.40384
O          0.30644        1.04330       -2.06461
H         -0.40911       -1.15896        1.78202
H         -1.30506       -3.11712        0.54001
H         -0.74844       -1.03695       -3.20564
H         -1.50468       -3.06213       -1.92948
Al         1.53871        2.17370       -2.49739
Cl         1.51835        4.13200       -1.95630
Cl         2.81169        1.66661       -4.00539
H          0.11008        0.93160        0.56483
C          2.60975        1.25949       -0.55591
H          1.86097        2.13523       -0.40339
H          3.11187        1.12148       -1.60666
H          3.51370        1.64780        0.05021
21
 12. R=  2.3  E= -57.43184 kcal/mol
C          0.00000        0.00000        0.00000
C          2.30000        0.00000        0.00000
C         -0.09249        0.00000       -1.40013
C         -0.51485       -1.12271        0.67320
O          2.32748       -1.04240        0.44899
C         -0.62512       -1.06720       -2.13441
C         -1.03069       -2.19770       -0.03100
C         -1.09296       -2.16751       -1.43361
O          0.42985        1.02364       -2.05529
H         -0.50561       -1.13461        1.76739
H         -1.40693       -3.07567        0.49808
H         -0.66124       -1.01753       -3.22343
H         -1.51731       -3.02164       -1.97319
Al         1.67976        2.11489       -2.51111
Cl         1.72410        4.09054       -2.02738
Cl         2.97986        1.52177       -3.96772
H          0.18990        0.91387        0.56722
C          2.69764        1.27604       -0.50868
H          1.91205        2.12628       -0.38326
H          3.27281        1.18725       -1.52723
H          3.54884        1.69445        0.15592
21
 13. R=  2.4  E= -58.98719 kcal/mol
C          0.00000        0.00000        0.00000
C          2.40000        0.00000        0.00000
C         -0.06211        0.00000       -1.39959
C         -0.54539       -1.10876        0.66300
O          2.34588       -1.04610        0.43045
C         -0.61329       -1.04642       -2.14675
C         -1.08259       -2.16968       -0.05325
C         -1.12587       -2.13399       -1.45327
O          0.51168        1.01064       -2.03886
H         -0.54983       -1.12785        1.75728
H         -1.48740       -3.03508        0.47504
H         -0.63353       -0.99598       -3.23546
H         -1.56758       -2.97218       -2.00341
Al         1.75714        2.08817       -2.50339
Cl         1.82714        4.06842       -2.03730
Cl         3.06377        1.48689       -3.95166
H          0.24098        0.89782        0.56936
C          2.80281        1.27614       -0.49245
H          2.01128        2.12146       -0.37549
H          3.38892        1.19737       -1.50401
H          3.64425        1.69562        0.18277
21
 14. R=  2.5  E= -60.53456 kcal/mol
C          0.00000        0.00000        0.00000
C          2.50000        0.00000        0.00000
C         -0.01891        0.00000       -1.40014
C         -0.61209       -1.07897        0.64605
O          2.36299       -1.04168        0.41913
C         -0.60419       -1.01163       -2.16452
C         -1.18739       -2.11120       -0.08794
C         -1.19480       -2.07142       -1.48575
O          0.63270        0.97871       -2.01862
H         -0.64261       -1.10322        1.73933
H         -1.64552       -2.95520        0.43114
H         -0.59072       -0.96273       -3.25287
H         -1.66811       -2.88155       -2.05047
Al         1.86423        2.06038       -2.48803
Cl         1.90302        4.04592       -2.03259
Cl         3.18347        1.47985       -3.93497
H          0.30108        0.87432        0.57421
C          2.92662        1.26956       -0.48042
H          2.14787        2.12701       -0.35730
H          3.51550        1.19738       -1.49102
H          3.77307        1.67344        0.19876
21
 15. R=  2.6  E= -61.73865 kcal/mol
C          0.00000        0.00000        0.00000
C          2.60000        0.00000        0.00000
C          0.03462        0.00000       -1.39977
C         -0.71248       -1.02811        0.61993
O          2.37918       -1.02816        0.41422
C         -0.59932       -0.96054       -2.18783
C         -1.33977       -2.01403       -0.13833
C         -1.29607       -1.97225       -1.53407
O          0.78378        0.92727       -1.98686
H         -0.78202       -1.05333        1.71082
H         -1.87488       -2.82341        0.36158
H         -0.53755       -0.91674       -3.27449
H         -1.81340       -2.73956       -2.11855
Al         1.99412        2.01581       -2.47679
Cl         1.96362        4.00976       -2.04699
Cl         3.31803        1.46074       -3.93059
H          0.36937        0.84108        0.58139
C          3.07239        1.25268       -0.47582
H          2.32790        2.13969       -0.33720
H          3.65760        1.17774       -1.48993
H          3.93731        1.62402        0.19972
