13
 1. R=  1.58392  E=  27.2086 kcal/mol
C          0.00000        0.00000        0.00000
C          1.33377        0.00000        0.00000
H          1.88537        0.00000        0.95662
C          2.14994       -0.01777       -1.23640
N          1.81947       -0.11992       -2.42231
C          3.65972        0.19528       -0.80751
H         -0.58839       -0.01579       -0.92522
H         -0.58705        0.01149        0.92653
N          4.26460       -0.96680       -0.08752
O          4.16256       -1.04882        1.11613
O          4.86291       -1.81915       -0.69834
H          4.28372        0.35956       -1.72290
H          3.72290        1.07068       -0.11274
13
 2. R=  1.6  E=  27.24002 kcal/mol
C          0.00000        0.00000        0.00000
C          1.33374        0.00000        0.00000
H          1.88460        0.00000        0.95720
C          2.14912       -0.02309       -1.23469
N          1.83472       -0.13400       -2.42215
C          3.66944        0.20860       -0.79319
H         -0.58915       -0.01175       -0.92470
H         -0.58603        0.00700        0.92722
N          4.27318       -0.94058       -0.05857
O          4.15570       -1.01481        1.14453
O          4.88677       -1.79330       -0.65411
H          4.29270        0.36668       -1.70903
H          3.71482        1.09284       -0.10997
13
 3. R=  1.7  E=  28.55509 kcal/mol
C          0.00000        0.00000        0.00000
C          1.33455        0.00000        0.00000
H          1.88785        0.00000        0.95545
C          2.13257       -0.00991       -1.23321
N          1.90108       -0.14655       -2.42367
C          3.72189        0.31985       -0.72792
H         -0.59176       -0.00490       -0.92301
H         -0.58350       -0.00070        0.92877
N          4.33385       -0.77459        0.04049
O          4.14448       -0.85832        1.23670
O          5.02237       -1.60347       -0.51076
H          4.32667        0.48244       -1.64880
H          3.66658        1.22324       -0.08007
13
 4. R=  1.8  E=  29.85163 kcal/mol
C          0.00000        0.00000        0.00000
C          1.33515        0.00000        0.00000
H          1.89667        0.00000        0.95050
C          2.11630       -0.02815       -1.23296
N          2.00000       -0.29939       -2.40434
C          3.70224        0.62962       -0.69244
H         -0.59406       -0.01317       -0.92139
H         -0.58141        0.00936        0.93000
N          4.43896       -0.30486        0.13562
O          4.23883       -0.34656        1.33620
O          5.23873       -1.07430       -0.35415
H          4.25413        0.82428       -1.63385
H          3.44133        1.53806       -0.11437
13
 5. R=  1.9  E=  29.3762 kcal/mol
C          0.00000        0.00000        0.00000
C          1.33457        0.00000        0.00000
H          1.91111        0.00000        0.94295
C          2.11588        0.00014       -1.22159
N          2.26356       -0.45714       -2.31618
C          3.33962        1.37108       -0.73890
H         -0.59456        0.00797       -0.92117
H         -0.58166       -0.00837        0.92953
N          4.33126        0.87558        0.16333
O          4.10163        0.82487        1.36277
O          5.39639        0.45068       -0.24394
H          3.77091        1.65626       -1.71372
H          2.67779        2.11548       -0.26365
13
 6. R=  2  E=  27.27394 kcal/mol
C          0.00000        0.00000        0.00000
C          1.33484        0.00000        0.00000
H          1.91551        0.00000        0.94196
C          2.11537       -0.00161       -1.21141
N          2.42193       -0.43358       -2.27229
C          3.14119        1.64010       -0.70895
H         -0.59761        0.01168       -0.91894
H         -0.57792       -0.00400        0.93181
N          4.15167        1.30298        0.21648
O          3.89531        1.22869        1.41360
O          5.28146        1.02147       -0.15063
H          3.52418        1.93091       -1.69739
H          2.32578        2.24045       -0.28052
13
 7. R=  2.1  E=  24.10413 kcal/mol
C          0.00000        0.00000        0.00000
C          1.33560        0.00000        0.00000
H          1.92212        0.00000        0.93913
C          2.10525       -0.00217       -1.21071
N          2.49604       -0.35595       -2.26486
C          3.03318        1.79309       -0.63976
H         -0.60082        0.01125       -0.91664
H         -0.57419       -0.00077        0.93418
N          4.02370        1.51401        0.30410
O          3.73711        1.40157        1.49504
O          5.18454        1.31100       -0.02885
H          3.40168        2.07001       -1.63397
H          2.13834        2.29078       -0.24859
13
 8. R=  2.2  E=  20.77288 kcal/mol
C          0.00000        0.00000        0.00000
C          1.33602        0.00000        0.00000
H          1.92144        0.00000        0.94117
C          2.10776        0.00207       -1.20330
N          2.58082       -0.27169       -2.24159
C          2.90946        1.94467       -0.55249
H         -0.60061        0.02134       -0.91663
H         -0.57266       -0.00290        0.93492
N          3.87418        1.71634        0.41579
O          3.55309        1.57794        1.59828
O          5.05853        1.58081        0.12524
H          3.27686        2.21076       -1.54706
H          1.95079        2.33654       -0.20176
13
 9. R=  2.3  E=  17.98548 kcal/mol
C          0.00000        0.00000        0.00000
C          1.33635        0.00000        0.00000
H          1.92470        0.00000        0.94001
C          2.09858        0.01528       -1.20618
N          2.61158       -0.18196       -2.23908
C          2.90575        2.02550       -0.43321
H         -0.60069        0.02361       -0.91677
H         -0.57386       -0.01388        0.93406
N          3.82840        1.76172        0.55543
O          3.46501        1.56989        1.72037
O          5.02643        1.64493        0.30488
H          3.29689        2.29161       -1.41652
H          1.91423        2.35508       -0.11803
